emt-exploration/iidm/smib.xiidm
<?xml version="1.0" encoding="UTF-8"?>
<iidm:network xmlns:iidm="http://www.powsybl.org/schema/iidm/1_4" id="emtsmib" caseDate="2024-01-01T00:00:00.000+00:00" forecastDistance="0" sourceFormat="manual">
  <iidm:substation id="S1" country="FR">
    <iidm:voltageLevel id="VL_GEN" nominalV="1.0" lowVoltageLimit="0.5" highVoltageLimit="1.5" topologyKind="BUS_BREAKER">
      <iidm:busBreakerTopology>
        <iidm:bus id="GEN_BUS" v="0.92" angle="0.0"/>
      </iidm:busBreakerTopology>
      <iidm:generator id="SM" energySource="OTHER" minP="-100.0" maxP="100.0" voltageRegulatorOn="true" targetP="60.0" targetV="0.92" bus="GEN_BUS" connectableBus="GEN_BUS">
        <iidm:minMaxReactiveLimits minQ="-100.0" maxQ="100.0"/>
      </iidm:generator>
    </iidm:voltageLevel>
    <iidm:voltageLevel id="VL_HV" nominalV="1.0" lowVoltageLimit="0.5" highVoltageLimit="1.5" topologyKind="BUS_BREAKER">
      <iidm:busBreakerTopology>
        <iidm:bus id="HV_BUS" v="0.91" angle="-2.0"/>
      </iidm:busBreakerTopology>
    </iidm:voltageLevel>
    <iidm:twoWindingsTransformer id="TR" r="0.0" x="0.001" g="0.0" b="0.0" ratedU1="1.0" ratedU2="1.0" bus1="GEN_BUS" connectableBus1="GEN_BUS" voltageLevelId1="VL_GEN" bus2="HV_BUS" connectableBus2="HV_BUS" voltageLevelId2="VL_HV"/>
  </iidm:substation>
  <iidm:substation id="S_INF">
    <iidm:voltageLevel id="VL_INF" nominalV="1.0" lowVoltageLimit="0.5" highVoltageLimit="1.5" topologyKind="BUS_BREAKER">
      <iidm:busBreakerTopology>
        <iidm:bus id="INF_BUS" v="0.90" angle="-5.0"/>
      </iidm:busBreakerTopology>
      <iidm:generator id="INF" energySource="OTHER" minP="-200.0" maxP="200.0" voltageRegulatorOn="true" targetP="0.0" targetV="0.90" bus="INF_BUS" connectableBus="INF_BUS">
        <iidm:minMaxReactiveLimits minQ="-200.0" maxQ="200.0"/>
      </iidm:generator>
    </iidm:voltageLevel>
  </iidm:substation>
  <iidm:line id="LINE" r="0.0002" x="0.002" g1="0.0" b1="0.0" g2="0.0" b2="0.0" bus1="HV_BUS" connectableBus1="HV_BUS" voltageLevelId1="VL_HV" bus2="INF_BUS" connectableBus2="INF_BUS" voltageLevelId2="VL_INF"/>
</iidm:network>
